/*--------------------------------*- C++ -*----------------------------------*\
  =========                 |
  \\      /  F ield         | OpenFOAM: The Open Source CFD Toolbox
   \\    /   O peration     | Website:  https://openfoam.org
    \\  /    A nd           | Version:  6
     \\/     M anipulation  |
\*---------------------------------------------------------------------------*/
FoamFile
{
    version     2.0;
    format      ascii;
    class       volVectorField;
    object      U;
}
// * * * * * * * * * * * * * * * * * * * * * * * * * * * * * * * * * * * * * //

dimensions      [0 1 -1 0 0 0 0];

internalField   uniform (0 0 0);

boundaryField
{

    outlet
    {
        type            pressureInletOutletVelocity;
        value           uniform (0 0 0);
    }
    obstacle
    {
        type            noSlip;
    }
    top
    {
        type            symmetry;
    }

    inlet
    {
        type            fixedValue;
        value           uniform (1.0 0 0);
    }

    defaultFaces
    {
        type            empty;
    }
}

// ************************************************************************* //
